Version 4
SHEET 1 2036 900
WIRE 496 -624 496 -656
WIRE 496 -544 496 -624
WIRE 496 -416 496 -464
WIRE 496 -416 400 -416
WIRE 608 -416 496 -416
WIRE -496 -384 -576 -384
WIRE -368 -384 -416 -384
WIRE 16 -384 -368 -384
WIRE 400 -384 400 -416
WIRE -576 -352 -576 -384
WIRE -368 -352 -368 -384
WIRE 608 -304 608 -416
WIRE 672 -304 608 -304
WIRE 784 -304 752 -304
WIRE 896 -304 848 -304
WIRE 1040 -304 976 -304
WIRE 1136 -304 1040 -304
WIRE 1280 -304 1136 -304
WIRE 1296 -304 1280 -304
WIRE 496 -272 496 -416
WIRE 496 -256 496 -272
WIRE 1136 -256 1136 -304
WIRE 1040 -240 1040 -304
WIRE 1280 -224 1280 -304
WIRE 16 -208 16 -384
WIRE 16 -208 0 -208
WIRE 272 -208 16 -208
WIRE 400 -208 400 -304
WIRE 400 -208 336 -208
WIRE 416 -208 400 -208
WIRE 432 -208 416 -208
WIRE 400 -160 400 -208
WIRE 496 -128 496 -160
WIRE 1040 -96 1040 -176
WIRE 1104 -96 1040 -96
WIRE 1136 -96 1136 -176
WIRE 1136 -96 1104 -96
WIRE 496 -80 496 -128
WIRE 496 -80 400 -80
WIRE 496 -48 496 -80
WIRE 1104 -48 1104 -96
WIRE 1280 -48 1280 -144
WIRE 16 160 -16 160
WIRE 48 160 16 160
WIRE 48 224 48 160
WIRE 48 336 48 304
FLAG 48 336 0
FLAG 16 160 +12v
FLAG 496 -624 +12v
FLAG 496 -48 0
FLAG 272 -208 i1
FLAG -576 -272 0
FLAG 416 -208 B1
FLAG 496 -272 C1
FLAG 496 -128 E1
FLAG -368 -272 0
FLAG 0 -144 0
FLAG 1104 -48 0
FLAG 1280 -48 0
SYMBOL voltage 48 208 R0
WINDOW 0 30 27 Left 2
WINDOW 123 0 0 Left 0
WINDOW 39 0 0 Left 0
SYMATTR InstName V1
SYMATTR Value 30
SYMBOL res 480 -560 R0
SYMATTR InstName R2
SYMATTR Value 1.5K
SYMBOL npn 432 -256 R0
SYMATTR InstName Q5
SYMATTR Value BC849/SIE
SYMBOL cap 336 -224 R90
WINDOW 0 0 32 VBottom 2
WINDOW 3 32 32 VTop 2
SYMATTR InstName C1
SYMATTR Value 3.3n
SYMBOL voltage -576 -368 R0
WINDOW 123 24 44 Left 2
WINDOW 39 0 0 Left 0
SYMATTR Value2 AC 1
SYMATTR InstName V3
SYMATTR Value ""
SYMBOL res -400 -400 R90
WINDOW 0 0 56 VBottom 2
WINDOW 3 32 56 VTop 2
SYMATTR InstName R12
SYMATTR Value 10
SYMBOL res -352 -256 R180
WINDOW 0 36 76 Left 2
WINDOW 3 36 40 Left 2
SYMATTR InstName R16
SYMATTR Value 27
SYMBOL res 384 -400 R0
SYMATTR InstName R1
SYMATTR Value 68K
SYMBOL res 384 -176 R0
SYMATTR InstName R3
SYMATTR Value 68K
SYMBOL cap 848 -320 R90
WINDOW 0 0 32 VBottom 2
WINDOW 3 32 32 VTop 2
SYMATTR InstName C2
SYMATTR Value 2.4n
SYMBOL ind 880 -288 R270
WINDOW 0 32 56 VTop 2
WINDOW 3 5 56 VBottom 2
SYMATTR InstName L1
SYMATTR Value 10µ
SYMBOL cap 1056 -176 R180
WINDOW 0 24 56 Left 2
WINDOW 3 24 8 Left 2
SYMATTR InstName C3
SYMATTR Value 12n
SYMBOL res 1264 -240 R0
SYMATTR InstName R5
SYMATTR Value 50
SYMBOL res 768 -320 R90
WINDOW 0 0 56 VBottom 2
WINDOW 3 32 56 VTop 2
SYMATTR InstName R6
SYMATTR Value 50
SYMBOL ind 1120 -272 R0
SYMATTR InstName L2
SYMATTR Value 2.2µ
TEXT -96 24 Left 2 !.include S_afbjt.lib\n.include BD441.LIB
TEXT -216 552 Left 2 !;tran 0 0.02m 0 0.001
TEXT -200 480 Left 2 !.ac oct 100 100K 10000K
